TELEMACHUS
MUSCATEL
CALUMET
CELESTA
ESCHEAT
MACHETE
MALTESE
SATCHEL
ACETUM
AMULET
AULETE
CAELUM
CASTLE
CHALET
CHASTE
CLAUSE
CUESTA
CUSHAT
HAMLET
HASLET
HELMET
HUMECT
HUSTLE
LACHES
MACULE
MASCLE
MEATUS
MULETA
MUSCAT
MUSCLE
MUSTEE
SACHEM
SACHET
SALUTE
SAMUEL
SCATHE
SCHEMA
SCHEME
SCUTAL
SELECT
SHELTA
SLEUTH
SLUTCH
SMEECH
TALCUM
TEASEL
TELESM
THAMES
ACUTE
ALEUT
ALMEH
AMUSE
ASHET
AUCHT
CAMEL
CASTE
CAUSE
CETUS
CHASM
CHEAT
CHEET
CHELA
CHEST
CHUTE
CLASH
CLAST
CLEAT
EASEL
ELECT
ELUTE
EMESA
HALSE
HAMEL
HAMES
HASTE
HAULM
LACET
LATCH
LATHE
LEACH
LEASH
LEAST
LEECH
LETHE
MACLE
MALUS
MATCH
MATHE
MATHS
MATSU
MEATH
MEECH
MELCH
METAL
METEL
METHS
MEUSE
MULCH
MULCT
MUSCA
MUSHA
MUTCH
SALEM
SATEM
SAUCE
SCALE
SCUTE
SELAH
SETAL
SHALE
SHALT
SHAME
SHEET
SHEMA
SLEET
SMALT
SMELT
STALE
STEAL
STEAM
STEEL
STELA
STELE
SUMAC
TALES
TALUS
TEACH
TESLA
THECA
THEME
THESE
THULE
TULSA
ULEMA
ACHE
ACLU
ACME
ACTU
AHEM
AHUM
ALCE
ALEC
ALEE
ALMS
ALUM
AUTH
CALM
CAME
CASH
CAST
CAUL
CELT
CHAL
CHAM
CHAT
CHUM
CLAM
CLUE
CULM
CULT
CUSH
CUTE
EACH
EAST
ECHT
ELSE
ESAU
ETCH
HAEM
HAET
HALE
HALT
HAST
HAUL
HEAL
HEAT
HEEL
HELM
HEST
HULA
LACE
LAME
LASH
LAST
LATH
LEAT
LECH
LEES
LEET
LEST
LUCE
LUES
LUSH
LUST
LUTE
MACE
MACH
MAHU
MALE
MALT
MASH
MAST
MASU
MATH
MAUL
MEAL
MEAT
MECH
MEET
MELA
MELE
MELT
MESA
MESE
MESH
META
METE
METH
MUCH
MULE
MUSE
MUSH
MUST
MUTA
MUTE
SALE
SALT
SAME
SAUL
SCAM
SCAT
SCUM
SCUT
SEAL
SEAM
SEAT
SECT
SEEL
SEEM
SEME
SETA
SETH
SHAM
SHEA
SHEM
SHUL
SHUT
SLAM
SLAT
SLUM
SLUT
SMUT
STEM
STUM
SUCH
SUET
TACH
TAEL
TALC
TALE
TAME
TASH
TEAL
TEAM
TECH
TEEM
TEES
TELE
THEE
THEM
THUS
TULA
TULE
TUSH
UTAH
ACE
ACH
ACT
AHU
ALE
ALS
ALT
AMT
AMU
ASH
AST
ATE
ATM
AUM
AUS
CAM
CAT
CHM
CST
CTS
CUE
CUM
CUT
EAM
EAT
EAU
ECU
EEL
ELM
ELT
EMS
EMU
ESC
ESE
EST
ETA
ETH
HAE
HAM
HAT
HEL
HEM
HET
HUE
HUM
HUT
LAC
LAH
LAM
LAT
LCM
LEA
LEE
LET
LEU
LUM
MAC
MAL
MAS
MAT
MEE
MEL
MET
MEU
MUT
SAC
SAE
SAL
SAM
SAT
SEA
SEC
SEE
SEM
SET
SHE
SLA
STM
SUE
SUM
TAL
TAM
TAU
TCH
TEA
TEC
TEE
THE
TUM
UME
USA
USE
UTE
