PSEUDOMALACHITE
EPITHALAMUS
MOUSTACHIAL
PASCHALTIDE
TELESCOPIUM
ACEPHALITE
MESOCEPHAL
METAPODIAL
MOUTHPIECE
PLASTIDOME
POSTMEDIAL
TELEMACHUS
ACADEMITE
ACEPHALUS
ACETAMIDE
AMPLITUDE
ASPECTUAL
CALAMITES
CHIPOLATA
CUSTODIAL
CUSTODIAM
DECOMPILE
DEMOPHILE
DISCOUPLE
ECLAMPSIA
ECTOPLASM
EPHIALTES
ETHMOIDAL
HASTILUDE
HEADSPACE
HEPATICAE
HOMESTEAD
HOUSEMAID
LAMPSHADE
MALACHITE
MALTHOUSE
MASTOIDAL
MESOPHILE
METHODICS
MOSCHATEL
MOUSETAIL
MOUSTACHE
MUSTELOID
OLDHAMITE
OMPHACITE
PATCHOULI
PETECHIAL
PHACOIDAL
PHACOLITE
PISTOLADE
PLUMASITE
PLUMOSITE
POETICULE
SEPTAEMIA
SEPTIMOLE
SOMEPLACE
STAPEDIAL
STEPCHILD
TIMESCALE
ACEPHALI
ADAMSITE
ADESPOTA
ADOLESCE
AEDICULA
AEDICULE
ALEHOUSE
ALOPECIA
AMPELITE
ASPHODEL
CALADIUM
CAMISOLE
CAMPSITE
CAPITOUL
CASELOAD
CATHODAL
CATHOUSE
CHLOASMA
CLEMATIS
CLUPEOID
CUSPIDAL
CUSTODEE
DAMOCLES
DECOUPLE
DELECTUS
DIAPAUSE
DIASTEMA
DIASTOLE
DIPLOMAT
DISPATCH
DISPLACE
DISPLUME
DUSTHEAP
EPISTOME
ESCALADE
ESCALOPE
ESCAPADE
ESPECIAL
HAPALOTE
HEADMOST
HEADPOST
HEADSAIL
HEMIPODE
HEPATICA
HEPATOMA
HOMESITE
HOSPITAL
HOUSELET
ICEHOUSE
ISOPLETH
LOCUSTID
MACULOSE
MACUSHLA
MADHOUSE
MASTHEAD
MEATHEAD
MELITOSE
MELODICA
MELODICS
MESOLITE
METALOPH
MILEPOST
MISPLACE
MISPLEAD
MISTEACH
MOUSELET
MUCOIDAL
MUSCADET
MUSCATEL
MUSICALE
MUSTELID
OPALESCE
OPSIMATH
OUTPLACE
OUTSCAPE
OUTSHAME
OUTSLEEP
OUTSMILE
PALAMITE
PALISADE
PALISADO
PALMISTE
PALUDOSE
PASTICHE
PAULISTA
PEACHLET
PEDESTAL
PEDICULE
PETALOID
PETECHIA
PETIOLUS
PHACELIA
PHASMIDA
PLACITUM
PLASMODE
PLASMOID
PLAUDITE
PLEIADES
PODETIUM
POSTICHE
POSTICUM
POSTLUDE
POULTICE
SCAPHOID
SCHEDULE
SCHOLIUM
SELEUCID
SEMPLICE
SEPTIMAL
SHIPLOAD
SHOELACE
SIDALCEA
SOCIETAL
SODALITE
SOLATIUM
SOLITUDE
SOUTACHE
STAMPEDE
STAPELIA
SULPHIDE
SULPHITE
TAPHOUSE
TEAHOUSE
THALAMUS
ACADEME
ACEPHAL
ACETOSE
ACHIOTE
ACHOLIA
ACOUSMA
ACTUOSE
ACUSHLA
ADAMITE
ADELITE
ADELPHI
ADIPOSE
ADOPTEE
ALECOST
ALISMAD
ALMOHAD
ALPISTE
ALUMITE
AMOSITE
AMPOULE
AMPUTEE
APOMICT
APOSTLE
APOTHEM
APSIDAL
ASOCIAL
ASPHALT
ATOMICS
AUSPICE
CAESIUM
CALAMUS
CALUMET
CAMELID
CAMELOT
CAPITAL
CAPITOL
CAPSULE
CASTILE
CATHEAD
CATHODE
CELESTA
CELOSIA
CEPHEID
CEPHEUS
CESTODA
CESTODE
CHALDEE
CHAMISE
CHAMOIS
CHAPEAU
CHAPLET
CHATEAU
CHEAPIE
CHEMISE
CHIASMA
CITADEL
CLOTHES
CUSTODE
DASHPOT
DATISCA
DECIMAL
DECLAIM
DEHISCE
DELOUSE
DEPLUME
DEPOSIT
DESCALE
DESPITE
DESPOIL
DIALECT
DIOCESE
DIPLOMA
DISCAMP
DISCUTE
DISPUTE
DUCTILE
DULCITE
DULCOSE
ECLIPSE
EDICTAL
EDOMITE
EELPOUT
ELAMITE
EMPLACE
EPIDOTE
EPISODE
EPISTLE
EPITOME
EPOCHAL
ESCHEAT
ESTOILE
ETHIOPS
ETHMOID
EUPLOID
EUTOPIA
HALESIA
HAPLOID
HEADSET
HEELTAP
HELIPAD
HEMIOLA
HIDATSA
HIDEOUT
HOMELET
HOPLITE
HOSPICE
HOSTILE
IAPETUS
IDEATUM
IMPASTO
IMPEACH
IMPETUS
IMPLEAD
IMPLODE
IMPULSE
ISHMAEL
ISOPACH
LACTOSE
LEUCITE
LEUCOMA
LIMEADE
LOCUSTA
MACHETE
MACHILA
MALACHI
MALAISE
MALICHO
MALPAIS
MALTESE
MALTOSE
MAPUCHE
MASHPEE
MASTOID
MATILDA
MEDALET
MEDUSAL
MELODIA
METHIDE
MICHAEL
MIDEAST
MISDEAL
MISLEAD
MOCHILA
MODISTE
MOPHEAD
MUCOSAL
MUDHOLE
MULTICS
MUSCOID
OATMEAL
OCTAPLA
OCTUPLE
OEDIPAL
OEDIPUS
OPACITE
OPTIMAL
OPUSCLE
OUTLASH
OUTLEAP
OUTPACE
OUTSAIL
OUTSIDE
PASCHAL
PASCOLA
PASTIME
PATACHE
PAULITE
PEACOAT
PEASCOD
PECTOSE
PEDICEL
PEDICLE
PETASMA
PETIOLE
PHACOID
PHASMID
PHLOMIS
PHOLCID
PHOTICS
PICOTAH
PICOTEE
PICULET
PIMELEA
PISTOLE
PITHEAD
PLACODE
PLACOID
PLASMID
PLASTID
PLATEAU
PLAUDIT
PLUMACH
PLUMCOT
PLUMOSE
POCHADE
POECILE
POEMLET
POETICS
POLECAT
POSITUM
POTHEAD
POTICHE
POUSTIE
PULICAT
SAMADHI
SATCHEL
SCAPULA
SCHLUMP
SCIAPOD
SCOPULA
SECLUDE
SEPTILE
SEPTIME
SEPTOLE
SHEITEL
SHELTIE
SHEMITE
SHOPLET
SOMALIA
SPATULA
SPECIAL
SPICULA
SPICULE
SPLOTCH
STADIUM
STEAMIE
STEMPLE
STIPULE
STOMACH
TADPOLE
TALCOSE
TALIPES
TAPIOCA
TEPACHE
TOPSAIL
TOPSIDE
ACEDIA
ACETAL
ACETUM
ACHIME
ACMITE
ACTUAL
ADATOM
ADEMPT
ADITUS
AECIAL
AECIUM
AEDILE
AEOLID
AEOLUS
AHIMSA
AHMADI
ALDEIA
ALDOSE
ALISMA
ALMOST
ALPHOS
ALTHEA
AMADOU
AMATOL
AMELIA
AMICUS
AMIDST
AMULET
APACHE
APIECE
APLITE
APLOME
ASLEEP
ASLOPE
ASPECT
ASTHMA
AUDILE
AULETE
CADMUS
CAELUM
CAHITA
CALAIS
CALASH
CALIPH
CAMAIL
CAMPUS
CAPIAS
CAPLET
CAPOTE
CAPSID
CASITA
CASTLE
CASUAL
CATSUP
CAUDAL
CAUDLE
CAUSAL
CHAETA
CHAISE
CHALET
CHAPEL
CHASTE
CHEAPO
CHEMIS
CHILDE
CHISEL
CHITAL
CITOLE
CLAUSE
CLEOME
CLOSET
CLOTHE
CUESTA
CULDEE
CUPOLA
CUSHAT
CUSPID
CUSTOM
DACITE
DACOIT
DAHLIA
DALASI
DAMSEL
DEASIL
DECAMP
DECEIT
DECILE
DECIMA
DECIME
DECIUS
DEIMOS
DELICE
DELICT
DELIME
DEMISE
DEMOTE
DEPICT
DEPOSE
DEPUTE
DESALT
DESILT
DESPOT
DETACH
DETAIL
DIATOM
DICTUM
DIESEL
DILUTE
DIMPLE
DIPOLE
DISMAL
DISPEL
DISTAL
DOCILE
DOUCHE
DUCTAL
DULCET
DUPLET
ELAPSE
ELDEST
ELISHA
ELODEA
ELOHIM
EMPEST
EMPUSA
EOLITH
ESCAPE
ESCUDO
ESPADA
ESPIAL
ETHICS
ETHIDE
ETHIOP
ETOILE
EUCLID
HAEMAL
HALIDE
HALITE
HAMITE
HAMLET
HASLET
HELIOS
HELIUM
HELMET
HEPCAT
HEPTAD
HIATAL
HIATUS
HIEMAL
HOSTEL
HOSTIE
HOUSAL
HOUSEL
HUMECT
HUSTLE
IMPACT
IMPALA
IMPALE
IMPEDE
IMPOSE
IMPOST
IMPUTE
ISEULT
ISOHEL
ISOLDE
ITHACA
LACHES
LACTAM
LAMPAS
LAPITH
LEPCHA
LIMPET
LIPOMA
LITMUS
LOATHE
LOCHIA
LOCUST
LOUCHE
LUCITE
LUPOID
LUSHAI
MACULA
MACULE
MACUSI
MADCAP
MAHOUT
MALICE
MALOCA
MALTHA
MASCLE
MASCOT
MASDEU
MASHIE
MATICO
MATIPO
MAUDLE
MEALIE
MEATAL
MEATUS
MEDIAL
MEDICO
MEDIUS
MEDUSA
MELADA
MELOID
MESIAD
MESIAL
MESODE
MESOLE
METHOD
METOPE
MISCUE
MISHAP
MISTAL
MODEST
MODIUS
MODULE
MOLEST
MOPLAH
MOTILE
MOUCHE
MUCOID
MUCOSA
MUDCAT
MUESLI
MULETA
MUSCAT
MUSCID
MUSCLE
MUSICO
MUSTEE
OCTILE
ODELET
OEDEMA
OPELET
OPHITE
OPTICS
OPTIME
OSMITE
OSTEAL
OSTIUM
OUSTEE
OUTLIE
OUTSEE
PAICHE
PAIDLE
PAILOU
PAIUTE
PALACE
PALAIS
PASHTO
PASTEL
PATESI
PATHOS
PATMOS
PATOIS
PATOLA
PAUSAL
PECTUS
PEDALO
PEDIAL
PELADE
PELEUS
PELHAM
PELITE
PELMET
PELOID
PELOTA
PELUDO
PESACH
PESADE
PESETA
PESTLE
PHASMA
PHIALE
PHLOEM
PHOCID
PHOLAD
PHOLAS
PIACHE
PICUDA
PIELET
PILEUM
PILEUS
PILOSE
PIOLET
PISACA
PISTOL
PITHOS
PLACET
PLACID
PLAICE
PLASMA
PLATCH
PLATEA
PLEACH
PLEIAD
PLOTCH
PLUMET
PODIAL
PODITE
PODIUM
POEMET
POLICE
POLITE
POMACE
POMADE
POSADA
POSTAL
POSTEA
POSTIE
POSTIL
POTASH
POULET
PSEUDO
PSOCID
PUMICE
PUTEAL
PUTSCH
SACHEM
SACHET
SAITHE
SALADE
SALAMI
SALOME
SALTIE
SALUTE
SAMITE
SAMPLE
SAMUEL
SAPELE
SCAMPI
SCATHE
SCHEMA
SCHEME
SCHLEP
SCOTIA
SCULPT
SCUTAL
SEDUCE
SEICHE
SEIDEL
SELECT
SEMITE
SEPTAL
SEPTUM
SHALOM
SHAMAL
SHEILA
SHELTA
SHIELD
SHOULD
SILOAM
SIMPLE
SITCOM
SITUAL
SITULA
SLEUTH
SLOUCH
SLUICE
SLUTCH
SMALTO
SMEECH
SMITCH
SOCIAL
SODIUM
SOLACE
SOLUTE
SOMALI
SOMITE
SOUPLE
SPATHE
SPECIE
SPEECH
SPEEDO
SPILTH
SPLICE
SPOACH
STAPLE
STOLID
STOMAL
STUDIO
STUPID
SULPHA
SUMPIT
TAIHOA
TALCUM
TALMUD
TAMALE
TEACUP
TEASEL
TECHIE
TEDIUM
TEHSIL
TELEDU
TELESM
TEMPEH
TEMPLE
THALIA
THAMES
THEMIS
TOECAP
TOMIAL
TOPHUS
TOUPEE
TOUSLE
TUPELO
ULTIMO
UTOPIA
ACIES
ACUTE
ADAPT
ADEEM
ADEPT
ADIEU
ADIOS
ADMIT
ADOPT
ADSUM
ADULT
ADUST
AEDES
AESOP
AHEAD
AHEAP
AHOLD
AISLE
AITCH
ALAMO
ALCID
ALEPH
ALEUT
ALIAS
ALMEH
ALOHA
ALOSE
ALOUD
ALPHA
AMATI
AMICE
AMIDE
AMOLE
AMPLE
AMUSE
APACE
APHID
APHIS
ASCOT
ASHET
ASIDE
ATLAS
AUCHT
AUDIO
AUDIT
AULOS
CADET
CAMAS
CAMEL
CAMEO
CAMPO
CAPOT
CASTE
CAUDA
CAUSE
CETUS
CHAMP
CHAOS
CHAPE
CHAPS
CHASM
CHEAP
CHEAT
CHEEP
CHEET
CHELA
CHEST
CHIDE
CHILE
CHIME
CHIMP
CHIMU
CHOIL
CHOLA
CHOLI
CHOMP
CHOPS
CHUMP
CHUTE
CITEE
CITES
CLADE
CLAIM
CLAMP
CLASH
CLASP
CLAST
CLEAT
CLEPE
CLIME
CLOMP
CLOSE
CLOTH
CLOUD
CLOUT
CLUMP
CULPA
CUPEL
CUPID
CUTIE
CUTIS
DACHA
DATIL
DATUM
DEATH
DELHI
DELPH
DELTA
DEMIT
DEMOS
DEMOT
DEPOT
DEPTH
DEUCE
DHOLE
DHOTI
DICOT
DIPSO
DISCO
DITCH
DOEST
DOETH
DOLCE
DOMAL
DOTAL
DOUCE
DOUSE
DUCAT
DULIA
DULSE
DUMAS
DUMPS
DUPLE
DUTCH
EASEL
EDICT
EDUCE
EDUCT
EIDOS
ELECT
ELEMI
ELIDE
ELITE
ELOPE
ELUDE
ELUTE
EMAIL
EMESA
EMOTE
EPACT
EPHOD
EPOCH
EPODE
EPSOM
ESTOP
ETHOS
EUSOL
HADAL
HADES
HADST
HAIDA
HALDU
HALMA
HALSE
HAMEL
HAMES
HAOLE
HASID
HASTE
HAULM
HAUSA
HEALD
HEIAU
HELOT
HILSA
HILUM
HILUS
HOCUS
HOSEA
HOSEL
HOSTA
HOTEL
HOUSE
HUMID
HUTIA
ICTUS
IDAHO
IDEAL
ILEAC
ILEUM
ILEUS
IMPEL
ISAAC
ISLAM
ISLET
LACET
LACIS
LAIUS
LAMIA
LAPIS
LAPSE
LATCH
LATHE
LATHI
LAUDS
LEACH
LEASH
LEAST
LEECH
LEPUS
LETHE
LICHT
LITAS
LITHE
LITHO
LOACH
LOATH
LOCUM
LOCUS
LOTUS
LOUIS
LOUPE
LOUSE
LUCID
MACAO
MACHO
MACLE
MADIA
MAHAL
MAHDI
MAHOE
MAHUA
MAILE
MALEO
MALTA
MALTO
MALUS
MAPAU
MAPLE
MASAI
MASHA
MATAI
MATCH
MATHE
MATHS
MATSU
MEATH
MEDAL
MEDEA
MEDIA
MEECH
MEITH
MELCH
MELIA
MELOE
MELOS
MESAD
METAL
METEL
METHO
METHS
METIS
METOL
MEUSE
MIAUL
MICAH
MIDAS
MIDST
MILCH
MILPA
MISDO
MITCH
MOCHA
MOCHE
MODAL
MODEL
MOHEL
MOPUS
MOSEL
MOSUL
MOTEL
MOUCH
MOULD
MOULE
MOULT
MOUSE
MOUTH
MUCID
MULCH
MULCT
MUSCA
MUSCI
MUSHA
MUTCH
OASAL
OCTAD
OCTAL
ODEUM
ODIUM
OLDIE
OLEUM
OMAHA
OPIUM
OSTIA
OTIUM
OUSIA
PADOU
PAISA
PALAS
PALAU
PALEA
PALET
PALMA
PALUS
PASCH
PASEO
PASHA
PASHM
PASMO
PASTA
PASTE
PATCH
PATEL
PATIA
PATIO
PAUSE
PEACE
PEACH
PEDAL
PEISE
PELTA
PETAL
PHASM
PHIAL
PHOCA
PIAST
PICOT
PICUL
PIECE
PILAU
PILCH
PILEA
PILES
PILOT
PILUS
PISCO
PISTE
PITCH
PLACE
PLAID
PLAIT
PLASH
PLATO
PLAUD
PLEAD
PLEAT
PLICA
PLOAT
PLOCE
PLOUT
PLUME
PLUSH
PLUTO
POACH
PODAL
POILU
POISE
POLIS
POSCA
POSIT
POTCH
POTUS
POUCE
POUCH
POULE
POULT
PSALM
PSEUD
PULSE
PUTID
SADHU
SAETA
SAITH
SALAD
SALAT
SALEM
SALEP
SALMI
SALUD
SAMOA
SAPID
SATEM
SAUCE
SAUDI
SCALD
SCALE
SCALP
SCAMP
SCAPE
SCAUP
SCHMO
SCOLD
SCOPA
SCOPE
SCOTE
SCOUT
SCUDO
SCUTE
SEDUM
SELAH
SEOUL
SEPAL
SEPIA
SETAL
SHADE
SHALE
SHALT
SHAMA
SHAME
SHAPE
SHEEP
SHEET
SHEMA
SHEOL
SHOAL
SHOAT
SHOPE
SHOUT
SIDHE
SIDLE
SIMUL
SITCH
SLADE
SLEEP
SLEET
SLICE
SLIDE
SLIME
SLOPE
SLOTH
SLUMP
SMALT
SMELT
SMILE
SMITE
SMITH
SMOLT
SOCLE
SOLID
SOUTH
SPACE
SPADE
SPAHI
SPECT
SPELT
SPICA
SPICE
SPIEL
SPILE
SPITE
SPLAT
SPLIT
SPODE
SPOIL
SPOUT
SPUME
STAID
STALE
STAMP
STAPH
STEAD
STEAL
STEAM
STEEL
STEEP
STELA
STELE
STILE
STIPE
STOEP
STOLE
STOMA
STOMP
STOPE
STOUP
STUDE
STUMP
STUPA
STUPE
SUEDE
SUITE
SUMAC
SUMPH
SUOMI
TACHI
TALES
TALUS
TAMIL
TAMPA
TAPAS
TAPIS
TAUPE
TEACH
TELOS
TEMPO
TEPAL
TEPID
TESLA
THECA
THEME
THESE
THIOL
THOLE
THOSE
THULE
THUMP
TIDAL
TILDE
TIMES
TODEA
TOILE
TOILS
TOUCH
TULIP
TULSA
TULSI
TUMID
TUPLE
ULEMA
UTILE
ACHE
ACID
ACLU
ACME
ACTA
ACTU
ADAM
ADAT
ADIT
AHEM
AHOM
AHUM
AIDE
AIDS
ALAP
ALAS
ALCE
ALEC
ALEE
ALMS
ALOE
ALOP
ALPS
ALSO
ALTO
ALUM
AMAH
AMAL
AMID
AMOS
APIS
APSE
APUS
ASAP
ASIA
ATOM
ATOP
AULA
AULD
AUTH
CALM
CAME
CAMP
CAPE
CAPO
CAPS
CASA
CASH
CAST
CAUL
CEDE
CEDI
CEIL
CELT
CHAD
CHAI
CHAL
CHAM
CHAP
CHAT
CHIA
CHIP
CHIT
CHOP
CHUM
CIAO
CITE
CLAD
CLAM
CLAP
CLIO
CLIP
CLIT
CLOD
CLOP
CLOT
CLOU
CLUE
CULM
CULT
CUSH
CUSP
CUTE
DACE
DAIS
DALE
DAME
DAMP
DASH
DATA
DEAL
DECO
DEEM
DEEP
DEIL
DELE
DELI
DEME
DEMO
DEPT
DESI
DIAL
DICE
DIEL
DIET
DIME
DIOL
DISC
DOIT
DOLE
DOLT
DOME
DOPA
DOPE
DOSA
DOSE
DOST
DOTE
DOTH
DOUT
DUAL
DUCE
DUCO
DUCT
DUEL
DUET
DUMA
DUMP
DUPE
DUST
EACH
EAST
ECAD
ECHO
ECHT
EDAM
EDIT
ELIA
ELSE
EMIT
EMPT
EPOS
ESAU
ETCH
ETUI
HADE
HAEM
HAET
HAIL
HALA
HALE
HALO
HALT
HAPU
HASP
HAST
HAUL
HEAD
HEAL
HEAP
HEAT
HEEL
HELM
HELP
HEMP
HEST
HIDE
HILT
HIPE
HOLA
HOLD
HOLE
HOLI
HOLM
HOLS
HOLT
HOME
HOPE
HOPI
HOSE
HOST
HOTI
HUIA
HULA
HUMP
IDEA
IDEM
IDES
IDLE
IDOL
IOTA
ISLE
ITAL
ITCH
ITEM
LACE
LADE
LAMA
LAME
LAMP
LAOS
LASH
LAST
LATH
LAUD
LEAD
LEAP
LEAT
LECH
LEDA
LEDE
LEEP
LEES
LEET
LEST
LETO
LIAS
LIDO
LIEU
LIMA
LIME
LIMO
LIMP
LIPA
LISP
LITE
LITH
LOAD
LOAM
LOCH
LODE
LOPE
LOSE
LOST
LOTA
LOTE
LOUD
LOUP
LOUT
LUCE
LUDO
LUES
LUMP
LUSH
LUST
LUTE
MAAT
MACE
MACH
MADE
MADO
MAHA
MAHI
MAHU
MAIA
MAID
MAIL
MALA
MALE
MALI
MALT
MASA
MASH
MAST
MASU
MATH
MAUD
MAUL
MEAD
MEAL
MEAT
MECH
MEDE
MEET
MELA
MELD
MELE
MELT
MESA
MESE
MESH
META
METE
METH
MIAO
MICA
MICO
MIDE
MILD
MILE
MILO
MILT
MIPS
MISO
MITE
MOAT
MODE
MODS
MOHA
MOIL
MOIT
MOLA
MOLD
MOLE
MOPE
MOST
MOTA
MOTE
MOTH
MOUE
MOUL
MUCH
MUID
MULE
MUSE
MUSH
MUSO
MUST
MUTA
MUTE
OAST
OATH
OCAS
ODUM
OHIA
OHMS
OLDS
OLID
OLPE
OMIT
OPAH
OPAL
OPEC
OPUS
OUCH
OUST
PACA
PACE
PACO
PACT
PACU
PAHO
PAID
PAIL
PAIS
PALA
PALE
PALI
PALM
PASH
PAST
PATA
PATH
PATU
PAUA
PEAL
PEAT
PECH
PEEL
PELT
PELU
PESO
PEST
PETO
PEUL
PHAT
PHIT
PHOT
PHUT
PIAL
PICA
PICE
PICT
PILE
PIMA
PISA
PITA
PITH
PLAT
PLEA
PLIM
PLOD
PLOT
PLUD
PLUM
PLUS
POEM
POET
POLE
POLT
POME
POSE
POSH
POST
POTE
POUT
PSIA
PUCE
PULE
PULI
PUMA
PUSH
SADI
SAID
SAIL
SALA
SALE
SALP
SALT
SAME
SAMP
SATI
SAUL
SCAD
SCAM
SCAT
SCOT
SCUD
SCUM
SCUP
SCUT
SEAL
SEAM
SEAT
SECT
SEEL
SEEM
SEEP
SEME
SEMI
SEPT
SETA
SETH
SHAD
SHAM
SHEA
SHEM
SHIA
SHIM
SHIP
SHIT
SHOE
SHOP
SHOT
SHUL
SHUT
SIAL
SIAM
SICE
SIDA
SIDE
SILD
SILO
SILT
SIMA
SIME
SIMP
SIPE
SITA
SITE
SITH
SLAM
SLAP
SLAT
SLIM
SLIP
SLIT
SLOE
SLOP
SLOT
SLUM
SLUT
SMIT
SMUT
SOAP
SODA
SOIL
SOLA
SOLE
SOMA
SOME
SOUL
SOUM
SOUP
SPAD
SPAE
SPAM
SPAT
SPEC
SPIT
SPOT
SPUD
SPUE
STEM
STEP
STOA
STOP
STUD
STUM
SUCH
SUET
SUID
SUIT
SUMI
SUMO
SUMP
SUPE
SUPT
TAAL
TACH
TACO
TAEL
TAIL
TALA
TALC
TALE
TAME
TAMP
TAOS
TAPA
TAPE
TAPU
TASH
TEAL
TEAM
TECH
TEEM
TEES
TELE
TEMP
THAI
THEE
THEM
THIS
THOS
THOU
THUD
THUS
TIDE
TILE
TIME
TOAD
TODA
TOEA
TOIL
TOLE
TOLU
TOME
TOPE
TOPI
TOSH
TULA
TULE
TUMP
TUPI
TUSH
UDAL
ULMO
UTAH
ACE
ACH
ACT
ADA
ADC
ADO
ADP
AHA
AHI
AHU
AID
AIL
AIM
AIT
ALA
ALE
ALP
ALS
ALT
AMP
AMT
AMU
APE
APL
APT
ASA
ASH
ASP
AST
ATA
ATE
ATI
ATM
AUD
AUM
AUS
CAD
CAI
CAM
CAP
CAT
CEP
CHI
CHM
CIA
CID
CIS
COD
COL
COM
COP
COS
COT
CPI
CPL
CPM
CPO
CPS
CPU
CST
CTO
CTS
CUD
CUE
CUM
CUP
CUT
DAH
DAL
DAM
DAP
DAT
DCA
DEA
DEE
DEL
DEM
DEP
DES
DIE
DIL
DIM
DIP
DIS
DIT
DOA
DOC
DOE
DOH
DOP
DOS
DOT
DPT
DSP
DUE
DUI
DUM
DUO
DUP
EAM
EAT
EAU
ECO
ECU
EDO
EDP
EDS
EEL
ELD
ELI
ELM
ELT
EMS
EMU
EOS
EPA
ESC
ESE
ESP
EST
ETA
ETH
HAE
HAM
HAP
HAT
HEL
HEM
HEP
HET
HIE
HIM
HIP
HIS
HIT
HOD
HOE
HOM
HOP
HOT
HUD
HUE
HUI
HUM
HUP
HUT
ICE
IDA
IDE
IDO
IHS
IMP
IMU
IOS
IOU
ISE
ISO
ITA
ITS
IUD
LAC
LAD
LAH
LAM
LAO
LAP
LAT
LCD
LCM
LEA
LEE
LEI
LEO
LET
LEU
LHD
LID
LIE
LIP
LIS
LIT
LOA
LOP
LOT
LUD
LUM
LUO
MAC
MAD
MAL
MAO
MAP
MAS
MAT
MEE
MEL
MEO
MET
MEU
MHO
MIA
MID
MIL
MIS
MIT
MOA
MOC
MOD
MOE
MOI
MOP
MOT
MOU
MPH
MUD
MUT
OAM
OAT
OCA
OCH
ODA
ODE
OHM
OIL
OLA
OLD
OLE
OLM
OPA
OPE
OPT
OTC
OUD
OUI
OUT
PAC
PAD
PAH
PAL
PAS
PAT
PCI
PCM
PCT
PEA
PEE
PES
PET
PHI
PHO
PIA
PIE
PIM
PIT
PMT
POA
POD
POH
POI
POL
POM
POS
POT
PSI
PST
PTA
PTE
PUA
PUD
PUL
PUS
PUT
SAC
SAD
SAE
SAI
SAL
SAM
SAP
SAT
SEA
SEC
SEE
SEI
SEM
SET
SHE
SHO
SHP
SID
SIL
SIM
SIP
SIT
SLA
SLD
SOC
SOD
SOE
SOH
SOL
SOP
SOT
SOU
SPA
SPL
STD
STM
SUE
SUI
SUM
SUP
TAD
TAI
TAL
TAM
TAO
TAP
TAU
TCH
TEA
TEC
TEE
THE
TIE
TIL
TIP
TOD
TOE
TOM
TOP
TPS
TSP
TUI
TUM
TUP
UDI
UME
UMP
UPS
USA
USE
UTE
